Info: SIMULATION PARAMETERS:
Info: TIMESTEP               4
Info: NUMBER OF STEPS        2100000000
Info: STEPS PER CYCLE        10
Info: PERIODIC CELL BASIS 1  33.767 0 0
Info: PERIODIC CELL BASIS 2  0 38.166 0
Info: PERIODIC CELL BASIS 3  0 0 36.625
Info: PERIODIC CELL CENTER   0 0 0
Info: WRAPPING ALL CLUSTERS AROUND PERIODIC BOUNDARIES ON OUTPUT.
Info: WRAPPING TO IMAGE NEAREST TO PERIODIC CELL CENTER.
Info: FIRST LDB TIMESTEP     50
Info: LAST LDB TIMESTEP     -1
Info: HOM BACKGROUND SCALING 1
Info: PME BACKGROUND SCALING 1
Info: MIN ATOMS PER PATCH    40
Info: EMPTY PATCH LOAD       40 ATOMS
Info: VELOCITY FILE          ../output/4_CLKWWW.0.restart.vel
Info: CENTER OF MASS MOVING INITIALLY? YES
Info: DIELECTRIC             1
Info: EXCLUDE                SCALED ONE-FOUR
Info: 1-4 ELECTROSTATICS SCALED BY 1
Info: MODIFIED 1-4 VDW PARAMETERS WILL BE USED
Info: DCD FILENAME           ../output/4_CLKWWW.1.dcd
Info: DCD FREQUENCY          10000
Info: DCD FIRST STEP         10000
Info: DCD FILE WILL CONTAIN UNIT CELL DATA
Info: XST FILENAME           ../output/4_CLKWWW.1.xst
Info: XST FREQUENCY          10000
Info: NO VELOCITY DCD OUTPUT
Info: NO FORCE DCD OUTPUT
Info: OUTPUT FILENAME        ../output/4_CLKWWW.1
Info: BINARY OUTPUT FILES WILL BE USED
Info: RESTART FILENAME       ../output/4_CLKWWW.1.restart
Info: RESTART FREQUENCY      10000
Info: BINARY RESTART FILES WILL BE USED
Info: SWITCHING ACTIVE
Info: VDW FORCE SWITCHING ACTIVE
Info: SWITCHING ON           8
Info: SWITCHING OFF          9
Info: PAIRLIST DISTANCE      11
Info: PAIRLIST SHRINK RATE   0.01
Info: PAIRLIST GROW RATE     0.01
Info: PAIRLIST TRIGGER       0.3
Info: PAIRLISTS PER CYCLE    2
Info: PAIRLISTS ENABLED
Info: MARGIN                 4
Info: HYDROGEN GROUP CUTOFF  2.5
Info: PATCH DIMENSION        17.5
Info: ENERGY OUTPUT STEPS    10000
Info: ENERGY EVALUATION STEPS    10000
Info: OUTPUT ENERGY PRECISION 4
Info: CROSSTERM ENERGY INCLUDED IN DIHEDRAL
Info: TIMING OUTPUT STEPS    10000
Info: PRESSURE OUTPUT STEPS  10000
Info: LANGEVIN DYNAMICS ACTIVE
Info: LANGEVIN TEMPERATURE   300
Info: LANGEVIN USING BBK INTEGRATOR
Info: LANGEVIN DAMPING COEFFICIENT IS 1 INVERSE PS
Info: LANGEVIN DYNAMICS NOT APPLIED TO HYDROGENS
Info: LANGEVIN PISTON PRESSURE CONTROL ACTIVE
Info:        TARGET PRESSURE IS 1.01325 BAR
Info:     OSCILLATION PERIOD IS 400 FS
Info:             DECAY TIME IS 300 FS
Info:     PISTON TEMPERATURE IS 300 K
Info:       PRESSURE CONTROL IS GROUP-BASED
Info:    INITIAL STRAIN RATE IS 0 0 0
Info:       CELL FLUCTUATION IS ISOTROPIC
Info: PARTICLE MESH EWALD (PME) ACTIVE
Info: PME TOLERANCE               1e-06
Info: PME EWALD COEFFICIENT       0.348832
Info: PME INTERPOLATION ORDER     4
Info: PME GRID DIMENSIONS         32 32 32
Info: PME MAXIMUM GRID SPACING    1.2
Info: FULL ELECTROSTATIC EVALUATION FREQUENCY      1
Info: USING VERLET I (r-RESPA) MTS SCHEME.
Info: C1 SPLITTING OF LONG RANGE ELECTROSTATICS
Info: PLACING ATOMS IN PATCHES BY HYDROGEN GROUPS
Info: RIGID BONDS TO HYDROGEN : ALL
Info:         ERROR TOLERANCE : 1e-08
Info:          MAX ITERATIONS : 100
Info: RIGID WATER USING SETTLE ALGORITHM
Info: RANDOM NUMBER SEED     1767224807
Info: USE HYDROGEN BONDS?    NO
Info: COORDINATE PDB         ../build/4_CLKWWW.pdb
Info: STRUCTURE FILE         ../build/repart_4_CLKWWW.psf
Info: PARAMETER file: CHARMM format!
Info: PARAMETERS             ../parameters/par_all36m_prot.prm
Info: PARAMETERS             ../parameters/par_all36_na.prm
Info: PARAMETERS             ../parameters/param19.inp
Info: PARAMETERS             ../parameters/par_all22_prot_metals.inp
Info: USING ARITHMETIC MEAN TO COMBINE L-J SIGMA PARAMETERS
Info: BINARY COORDINATES     ../output/4_CLKWWW.0.restart.coor
Info: SUMMARY OF PARAMETERS:
Info: 435 BONDS
Info: 1145 ANGLES
Info: 1742 DIHEDRAL
Info: 136 IMPROPER
Info: 6 CROSSTERM
Info: 214 VDW
Info: 4 VDW_PAIRS
Info: 0 NBTHOLE_PAIRS
Info: STRUCTURE SUMMARY:
Info: 3889 ATOMS
Info: 2634 BONDS
Info: 1486 ANGLES
Info: 353 DIHEDRALS
Info: 11 IMPROPERS
Info: 4 CROSSTERMS
Info: 0 EXCLUSIONS
Info: 3814 RIGID BONDS
Info: 7853 DEGREES OF FREEDOM
Info: 1326 HYDROGEN GROUPS
Info: 4 ATOMS IN LARGEST HYDROGEN GROUP
Info: 1326 MIGRATION GROUPS
Info: 4 ATOMS IN LARGEST MIGRATION GROUP
Info: TOTAL MASS = 23728.6 amu
Info: TOTAL CHARGE = 1.30385e-08 e
Info: MASS DENSITY = 0.834805 g/cm^3
Info: ATOM DENSITY = 0.0823932 atoms/A^3
Info: ADDED 4449 IMPLICIT EXCLUSIONS
Info: NONBONDED TABLE R-SQUARED SPACING: 0.0625
Info: NONBONDED TABLE SIZE: 705 POINTS
ETITLE: TS BOND ANGLE DIHED IMPRP ELECT VDW BOUNDARY MISC KINETIC TOTAL TEMP POTENTIAL TOTAL3 TEMPAVG PRESSURE GPRESSURE VOLUME PRESSAVG GPRESSAVG
ENERGY: 0 8.2134 29.5884 44.8972 0.5815 -17981.6323 2271.7615 0.0000 0.0000 0.0000 -15626.5904 0.0000 -15626.5904 -15626.5883 0.0000 -3073.0249 -3072.9027 47200.5172 -3073.0249 -3072.9027
ENERGY: 370000 35.4506 76.4656 68.6343 3.8774 -14572.1284 1484.2812 0.0000 0.0000 2319.8537 -10583.5656 297.3140 -12903.4193 -10557.8982 295.7281 -48.8610 -56.1896 39195.3690 8.2107 8.2779
ENERGY: 740000 38.6828 78.1836 58.9659 1.4753 -14562.4791 1467.5676 0.0000 0.0000 2309.6317 -10607.9723 296.0040 -12917.6039 -10589.9378 297.1216 -117.8441 -135.9832 38994.8056 -1.0902 -1.0985
ENERGY: 1120000 30.0536 79.0905 65.5649 1.8608 -14519.1694 1451.2421 0.0000 0.0000 2333.6229 -10557.7345 299.0787 -12891.3574 -10532.3881 298.8470 185.3547 194.9238 38543.8021 -0.4636 -0.4259
ENERGY: 1490000 26.4073 76.8586 63.7343 2.1378 -14457.2613 1424.0557 0.0000 0.0000 2326.0272 -10538.0404 298.1052 -12864.0676 -10515.1929 296.5331 -85.2121 -67.5172 38960.8107 1.6845 1.7228
ENERGY: 1860000 41.1325 87.1711 61.2550 2.3821 -14630.6345 1470.9385 0.0000 0.0000 2264.5942 -10703.1611 290.2319 -12967.7553 -10679.8432 295.7995 -325.8364 -325.7945 38641.0985 0.6519 0.7337
