Info: SIMULATION PARAMETERS:
Info: TIMESTEP               4
Info: NUMBER OF STEPS        2100000000
Info: STEPS PER CYCLE        10
Info: PERIODIC CELL BASIS 1  118.522 0 0
Info: PERIODIC CELL BASIS 2  0 118.522 0
Info: PERIODIC CELL BASIS 3  0 0 118.522
Info: PERIODIC CELL CENTER   0 0 0
Info: WRAPPING ALL CLUSTERS AROUND PERIODIC BOUNDARIES ON OUTPUT.
Info: WRAPPING TO IMAGE NEAREST TO PERIODIC CELL CENTER.
Info: FIRST LDB TIMESTEP     50
Info: LAST LDB TIMESTEP     -1
Info: HOM BACKGROUND SCALING 1
Info: PME BACKGROUND SCALING 1
Info: MIN ATOMS PER PATCH    40
Info: EMPTY PATCH LOAD       40 ATOMS
Info: VELOCITY FILE          ../output/eq_pamam_15F3_ions.0.restart.vel
Info: CENTER OF MASS MOVING INITIALLY? YES
Info: DIELECTRIC             1
Info: EXCLUDE                SCALED ONE-FOUR
Info: 1-4 ELECTROSTATICS SCALED BY 1
Info: MODIFIED 1-4 VDW PARAMETERS WILL BE USED
Info: DCD FILENAME           ../output/eq_pamam_15F3_ions.1.dcd
Info: DCD FREQUENCY          10000
Info: DCD FIRST STEP         10000
Info: DCD FILE WILL CONTAIN UNIT CELL DATA
Info: XST FILENAME           ../output/eq_pamam_15F3_ions.1.xst
Info: XST FREQUENCY          10000
Info: NO VELOCITY DCD OUTPUT
Info: NO FORCE DCD OUTPUT
Info: OUTPUT FILENAME        ../output/eq_pamam_15F3_ions.1
Info: BINARY OUTPUT FILES WILL BE USED
Info: RESTART FILENAME       ../output/eq_pamam_15F3_ions.1.restart
Info: RESTART FREQUENCY      10000
Info: BINARY RESTART FILES WILL BE USED
Info: SWITCHING ACTIVE
Info: VDW FORCE SWITCHING ACTIVE
Info: SWITCHING ON           8
Info: SWITCHING OFF          9
Info: PAIRLIST DISTANCE      11
Info: PAIRLIST SHRINK RATE   0.01
Info: PAIRLIST GROW RATE     0.01
Info: PAIRLIST TRIGGER       0.3
Info: PAIRLISTS PER CYCLE    2
Info: PAIRLISTS ENABLED
Info: MARGIN                 4
Info: HYDROGEN GROUP CUTOFF  2.5
Info: PATCH DIMENSION        17.5
Info: ENERGY OUTPUT STEPS    10000
Info: ENERGY EVALUATION STEPS    10000
Info: OUTPUT ENERGY PRECISION 4
Info: OUPUT ENERGY PRECISION 4
Info: CROSSTERM ENERGY INCLUDED IN DIHEDRAL
Info: TIMING OUTPUT STEPS    10000
Info: PRESSURE OUTPUT STEPS  10000
Info: LANGEVIN DYNAMICS ACTIVE
Info: LANGEVIN TEMPERATURE   300
Info: LANGEVIN USING BBK INTEGRATOR
Info: LANGEVIN DAMPING COEFFICIENT IS 1 INVERSE PS
Info: LANGEVIN DYNAMICS NOT APPLIED TO HYDROGENS
Info: LANGEVIN PISTON PRESSURE CONTROL ACTIVE
Info:        TARGET PRESSURE IS 1.01325 BAR
Info:     OSCILLATION PERIOD IS 400 FS
Info:             DECAY TIME IS 300 FS
Info:     PISTON TEMPERATURE IS 300 K
Info:       PRESSURE CONTROL IS GROUP-BASED
Info:    INITIAL STRAIN RATE IS -3.7908e-06 -3.7908e-06 -3.7908e-06
Info:       CELL FLUCTUATION IS ISOTROPIC
Info: PARTICLE MESH EWALD (PME) ACTIVE
Info: PME TOLERANCE               1e-06
Info: PME EWALD COEFFICIENT       0.348832
Info: PME INTERPOLATION ORDER     4
Info: PME GRID DIMENSIONS         108 108 108
Info: PME MAXIMUM GRID SPACING    1.2
Info: FULL ELECTROSTATIC EVALUATION FREQUENCY      1
Info: USING VERLET I (r-RESPA) MTS SCHEME.
Info: C1 SPLITTING OF LONG RANGE ELECTROSTATICS
Info: PLACING ATOMS IN PATCHES BY HYDROGEN GROUPS
Info: RIGID BONDS TO HYDROGEN : ALL
Info:         ERROR TOLERANCE : 1e-08
Info:          MAX ITERATIONS : 100
Info: RIGID WATER USING SETTLE ALGORITHM
Info: RANDOM NUMBER SEED     1703174983
Info: USE HYDROGEN BONDS?    NO
Info: COORDINATE PDB         ../build/pamam_15F3_ions.pdb
Info: STRUCTURE FILE         ../build/pamam_15F3_ions_repart.psf
Info: PARAMETER file: CHARMM format!
Info: PARAMETERS             ../parameters/par_all36_cgenff.prm
Info: PARAMETERS             ../parameters/par_all36_prot_lipid_water_ions.prm
Info: PARAMETERS             ../parameters/pamam_1.str
Info: PARAMETERS             ../parameters/pamam_2.str
Info: PARAMETERS             ../parameters/F3.str
Info: USING ARITHMETIC MEAN TO COMBINE L-J SIGMA PARAMETERS
Info: BINARY COORDINATES     ../output/eq_pamam_15F3_ions.0.restart.coor
Info: SKIPPING rtf SECTION IN STREAM FILE
Info: SKIPPING rtf SECTION IN STREAM FILE
Info: SKIPPING rtf SECTION IN STREAM FILE
Info: SUMMARY OF PARAMETERS:
Info: 702 BONDS
Info: 2012 ANGLES
Info: 4570 DIHEDRAL
Info: 154 IMPROPER
Info: 6 CROSSTERM
Info: 248 VDW
Info: 0 VDW_PAIRS
Info: 0 NBTHOLE_PAIRS
Info: STRUCTURE SUMMARY:
Info: 165927 ATOMS
Info: 110805 BONDS
Info: 56793 ANGLES
Info: 2750 DIHEDRALS
Info: 58 IMPROPERS
Info: 0 CROSSTERMS
Info: 0 EXCLUSIONS
Info: 165015 RIGID BONDS
Info: 332766 DEGREES OF FREEDOM
Info: 55737 HYDROGEN GROUPS
Info: 4 ATOMS IN LARGEST HYDROGEN GROUP
Info: 55737 MIGRATION GROUPS
Info: 4 ATOMS IN LARGEST MIGRATION GROUP
Info: TOTAL MASS = 1.00531e+06 amu
Info: TOTAL CHARGE = 9.81614e-07 e
Info: MASS DENSITY = 1.00268 g/cm^3
Info: ATOM DENSITY = 0.0996601 atoms/A^3
Info: ADDED 170213 IMPLICIT EXCLUSIONS
Info: NONBONDED TABLE R-SQUARED SPACING: 0.0625
Info: NONBONDED TABLE SIZE: 705 POINTS
Info: Use 3D box decompostion in PME FFT.
Info: Updated CUDA force table with 4096 elements.
Info: Updated CUDA LJ table with 248 x 248 elements.
Info: Found 129 unique exclusion lists needing 3084 bytes
ETITLE: TS BOND ANGLE DIHED IMPRP ELECT VDW BOUNDARY MISC KINETIC TOTAL TEMP POTENTIAL TOTAL3 TEMPAVG PRESSURE GPRESSURE VOLUME PRESSAVG GPRESSAVG
ENERGY: 0 296.2502 527.1940 567.5557 15.7360 -625531.4365 63753.3908 0.0000 0.0000 98326.8556 -462044.4543 297.3881 -560371.3099 -461222.0911 297.3881 -94.5908 -94.6220 1664929.9091 -94.5908 -94.6220
ENERGY: 3310000 294.8362 518.8388 532.5633 16.2961 -627075.1711 64159.4974 0.0000 0.0000 98138.2084 -463414.9307 296.8175 -561553.1392 -462598.3436 296.8278 -37.4934 -35.7084 1660214.8600 0.7879 0.7928
ENERGY: 6630000 290.2310 508.5719 554.6802 14.5264 -626345.1803 64032.5859 0.0000 0.0000 97843.4479 -463101.1370 295.9260 -560944.5849 -462298.1665 296.6504 -87.9263 -87.1503 1664898.5079 2.3188 2.3053
ENERGY: 9940000 299.5933 541.7083 555.1067 15.6943 -626580.5083 64648.5294 0.0000 0.0000 98092.5619 -462427.3143 296.6795 -560519.8762 -461588.6527 297.0024 32.5566 31.0398 1664813.1920 0.6884 0.6930
ENERGY: 13260000 275.3954 530.9874 531.0361 16.2599 -627397.9840 65095.2369 0.0000 0.0000 97949.0876 -462999.9808 296.2455 -560949.0684 -462188.8160 296.7393 81.5419 79.1636 1663841.4203 1.0201 1.0172
ENERGY: 16570000 293.8452 543.2138 550.4018 18.1397 -626766.8908 64577.0996 0.0000 0.0000 97767.6877 -463016.5030 295.6969 -560784.1907 -462197.4154 296.8602 16.6401 16.4095 1661966.4560 1.3058 1.3207
